resultados/_temp_alt3_1p20/LineSummary.csv
line,maxCurrentA,normAmps,maxLoadingPct,meanLoadingPct,overloadHours
rbt_1607347,93.19431633131846,124.95,74.58528717992674,25.74713567360565,0
sbt_7584,93.19432642069077,163.8,56.895193175024886,19.6404448247734,0
sbt_22840,93.19432180023365,163.8,56.895190354232994,19.64044474938098,0
rbt_630758,30.832489912444228,76.65,40.22503576313663,17.81155609276034,0
rbt_637576,24.665719440462837,61.95,39.81552774893113,14.765450890518606,0
rbt_632607,49.006200940360564,124.95,39.22064901189321,18.461769174596853,0
rbt_1130761,30.42819233051651,90.3,33.6967799894978,15.859265587484652,0
rbt_606147,25.292424936433367,76.65,32.99729280682761,12.486866331404388,0
rbt_605836,25.829499443042465,90.3,28.604096836148912,13.472165497316254,0
rbt_637360,17.661410605708703,61.95,28.50913737806086,13.394196517980832,0
rbt_637918,17.623867605923913,61.95,28.448535279941744,11.429938822650627,0
rbt_626476,15.259793383045418,61.95,24.632434839459915,11.590566589467349,0
rbt_1607350,21.935760281224358,90.3,24.292093334689213,8.845732007405731,0
rbt_606126,13.522538864959747,61.95,21.82814990308272,7.848739360739894,0
rbt_3405844,18.94162012909628,90.3,20.97632350951969,7.268761701982073,0
rbt_1633671,12.992212433974274,61.95,20.97209432441368,10.406478442244302,0
rbt_1627323,15.01890519423868,76.65,19.59413593507982,9.219301488944474,0
rbt_606143,14.824943541717003,76.65,19.341087464731903,6.891663816524399,0
sbt_34378,24.656761049750195,128.1,19.24805702556612,9.445167211477559,0
sbt_34379,24.579793563354286,128.1,19.18797311737259,9.309572711509087,0
rbt_637397,11.714906339102011,61.95,18.910260434385812,8.888059307870938,0
rbt_635862,10.774434562092488,61.95,17.39214618578287,5.997585784574313,0
rbt_3435739,13.115196857747895,76.65,17.110498183624127,8.495358367505451,0
rbt_605816,10.170574018637538,61.95,16.417391474798286,6.288691485343488,0
smt_29422,26.143993522311394,163.8,15.96092400629511,9.778682037753095,0
smt_19119,26.14139960905537,163.8,15.959340420668722,9.779486640744343,0
smt_17184,26.140218606783648,163.8,15.958619418060835,9.77897392396982,0
sbt_24791,25.292446203286513,163.8,15.441053848160264,5.843213731159352,0
sbt_3174,25.292437341701245,163.8,15.441048438157045,5.843215341855964,0
rbt_609688,11.16467901398801,76.65,14.565791277218537,5.384886878646653,0
rbt_1638954,8.578484786730758,61.95,13.847433069783305,6.509386400148699,0
rbt_1607265,12.050358106206405,90.3,13.34480410432603,6.280828255526459,0
rbt_606139,9.29729531123828,76.65,12.129543785046678,4.3991839111282305,0
sbt_9361,25.829499525120646,216.3,11.94151619284357,5.624302076154034,0
rbt_623004,7.222613790643951,61.95,11.658779323073366,4.638491824470265,0
rbt_606121,6.961822182654946,61.95,11.237808204447047,5.280206669310162,0
sbt_11363,18.0138932868385,163.8,10.997492849107752,4.169925847141685,0
rbt_1605991,6.657592077745351,61.95,10.74671844672373,5.052746802741293,0
rbt_1607280,6.604935440400875,61.95,10.661719839226594,5.0106867237789485,0
sbt_34393,13.288401619397241,128.1,10.373459499919784,6.820009351326914,0
rbt_606114,9.030053307734356,90.3,10.000059034035832,4.700675802649669,0
rbt_627337,8.789999720848034,90.3,9.734218959964599,4.5777224072605325,0
rbt_1621994,8.623770601056352,90.3,9.5501335559871,4.488158417493373,0
rbt_626678,8.425015451929536,90.3,9.330028185968478,4.38803114151455,0
rbt_635543,5.769887812808605,61.95,9.313781780159168,3.7848883429464664,0
rbt_606150,5.734882459842543,61.95,9.257275964233322,4.348998585467849,0
rbt_1607272,8.253816608674736,90.3,9.140439212264381,4.301160709737768,0
smt_34713,26.127125606137362,286.65,9.114643504670282,5.584755523905039,0
smt_34700,26.12697199143635,286.65,9.114589915030995,5.5847178339214,0
smt_34701,26.126608100435686,286.65,9.114462968929248,5.5846285702336145,0
smt_34715,26.126296912507126,286.65,9.114354408689037,5.584552255475452,0
smt_34702,26.125988684145998,286.65,9.114246880916099,5.584476685305155,0
smt_34703,26.125566466408134,286.65,9.114099587095112,5.584373198070904,0
smt_34704,26.12505887259173,286.65,9.11392250918951,5.584248831244633,0
smt_34716,26.124741613093597,286.65,9.11381183083677,5.58417112448893,0
smt_34705,26.124422624696034,286.65,9.11370054934451,5.58409301421043,0
smt_34717,26.12404251108842,286.65,9.11356794386479,5.583999962412364,0
smt_34706,26.123657635900024,286.65,9.113433677271944,5.583905774005985,0
smt_34707,26.123204460593104,286.65,9.113275583671063,5.583794908181826,0
smt_34708,26.122782219131594,286.65,9.113128281573903,5.583691646462797,0
smt_34709,26.12223729524497,286.65,9.112938180793643,5.583558433867396,0
smt_34718,26.121933722609526,286.65,9.112832277205488,5.583484247538753,0
smt_34710,26.121636844710718,286.65,9.112728709126364,5.583411714790722,0
smt_34719,26.12132633455107,286.65,9.112620385330917,5.583335869972983,0
smt_34711,26.121016819021015,286.65,9.112512408519455,5.583260286964639,0
smt_34720,26.12066390562725,286.65,9.112389292038113,5.583174129296576,0
smt_34712,26.12033831726024,286.65,9.112275708097068,5.583094664280316,0
smt_34721,26.120104682519774,286.65,9.112194202867531,5.583037655524191,0
smt_34714,26.1200950772451,286.65,9.112190851995502,5.58303531162736,0
rbt_623007,5.640051202214413,61.95,9.104198873631013,4.277694298632917,0
sbt_22748,19.52120584176842,216.3,9.025060490877678,4.246958986663542,0
sbt_7427,19.52119769148352,216.3,9.02505672283103,4.246955083132613,0
sbt_34383,11.547855122468532,128.1,9.014719065158886,5.310889770900679,0
sbt_34392,11.547852003741161,128.1,9.014716630555162,5.652225145276046,0
sbt_34384,11.532946981632525,128.1,9.003081172234603,4.3492085284022695,0
rbt_1630759,6.825078721004635,76.65,8.904212290938858,4.188702969324294,0
rbt_606122,5.512200618017037,61.95,8.897821820850744,4.1823557634073145,0
rbt_1229546,8.00081611852751,90.3,8.860261482311751,4.167115367727456,0
rbt_1638606,5.45853220577206,61.95,8.811190001246262,4.143330373372012,0
rbt_605905,7.808933199916571,90.3,8.647766555832305,4.065422435510569,0
rbt_1607283,7.730368156173514,90.3,8.560762077711532,4.02754749246898,0
smt_31417,27.90014173536507,327.6,8.51652678124697,5.242129218726146,0
smt_31416,27.900093685101506,327.6,8.516512113889348,5.242118895381069,0
smt_31411,27.900075372133323,327.6,8.51650652385022,5.242114961506448,0
smt_31412,27.900054650763003,327.6,8.516500198645605,5.242110509764826,0
smt_31413,27.8999317796444,327.6,8.516462692199145,5.2420841144914805,0
smt_31414,27.899839442941257,327.6,8.516434506392324,5.242064280261927,0
smt_31415,27.89960546858708,327.6,8.51636308564929,5.242014027613489,0
smt_4387,27.899220690550806,327.6,8.516245632036265,5.241931404151772,0
smt_4863,27.89877670929505,327.6,8.516110106622419,5.241836096671414,0
smt_4693,27.898404224490235,327.6,8.51599640552205,5.241756160701505,0
smt_17964,27.89817802716708,327.6,8.51592735872011,5.2330178252195925,0
smt_4591,27.898063812372893,327.6,8.515892494619319,5.241683126539376,0
smt_6826,27.89771514842371,327.6,8.515786064842402,5.232917969327921,0
smt_4627,27.897702546862266,327.6,8.515782218211925,5.241605638094696,0
smt_4527,27.89741357864029,327.6,8.515694010573958,5.241543671501221,0
smt_7012,27.89718081647251,327.6,8.515622959851193,5.232802740694358,0
smt_23134,27.896943804156844,327.6,8.515550611769488,5.24144296043091,0
smt_22791,27.896701985469164,327.6,8.51547679654126,5.232699518763799,0
smt_18545,27.896522590021586,327.6,8.515422036026123,5.241352689087242,0
smt_7020,27.896143001741418,327.6,8.515306166587735,5.2325790636314755,0
smt_10381,27.896076316510328,327.6,8.515285810900588,5.2412570773397,0
smt_18806,27.895850864117303,327.6,8.515216991488797,5.241208787116607,0
smt_24122,27.89577748748789,327.6,8.515194593250271,5.241193072691805,0
smt_6842,27.895712870689863,327.6,8.515174868952949,5.232486408185962,0
smt_6830,27.895060319734487,327.6,8.514975677574629,5.232345896020778,0
smt_31407,27.894275436115006,327.6,8.514736091610196,5.232176977179971,0
smt_29390,27.89390390834103,327.6,8.51462268264378,5.232187242238984,0
smt_31408,27.893794739694794,327.6,8.514589358881194,5.240583440281793,0
smt_17776,27.89327310203658,327.6,8.514430128826794,5.232050364571807,0
smt_10747,27.892631164177054,327.6,8.514234177099222,5.231911135476665,0
smt_18202,27.89207368004969,327.6,8.514064004899174,5.2317902758289465,0
smt_17794,27.891556340025478,327.6,8.513906086698864,5.231678162755558,0
smt_29420,27.891236671849974,327.6,8.513808507890712,5.231608908190635,0
smt_22739,27.891049853714073,327.6,8.513751481597701,5.231568442379373,0
smt_17795,27.890433850021203,327.6,8.513563446282419,5.231435051340404,0
smt_29389,27.889746594905198,327.6,8.513353661448471,5.231286301411637,0
smt_19163,27.889154375726903,327.6,8.513172886363524,5.231158180420055,0
smt_17961,27.888776915191674,327.6,8.513057666419924,5.231076549036,0
smt_29388,27.888341569146437,327.6,8.512924776906726,5.230982426746137,0
smt_17962,27.887806489268797,327.6,8.512761443610744,5.230866782481326,0
rbt_1107340,7.401268591874925,90.3,8.19631073297334,3.8573210345054147,0
rbt_1626486,7.400752486268669,90.3,8.19573918745146,3.851479360005149,0
rbt_605822,7.400526321221787,90.3,8.195488727820363,3.857103241331042,0
rbt_1607287,7.393959904637931,90.3,8.18821694865773,3.8517682876164216,0
smt_6447,26.205877593152124,327.6,7.99935213466182,4.90327826248198,0
smt_6627,26.205484703680717,327.6,7.999232205030743,4.9031952637495975,0
smt_24630,26.2048583129008,327.6,7.9990409990539675,4.903062991799271,0
smt_24629,26.204471794656538,327.6,7.998923014241923,4.902981405947275,0
smt_24628,26.203956455354408,327.6,7.998765706762639,4.902872668322139,0
smt_24627,26.203573836525827,327.6,7.99864891224842,4.9027919642179905,0
smt_6957,26.203215897407702,327.6,7.998539651223352,4.902716488305564,0
smt_6431,26.20277042276864,327.6,7.998403669953796,4.902622584916402,0
smt_24626,26.202399687599673,327.6,7.998290502930303,4.9025444619497245,0
smt_12228,26.20199658500143,327.6,7.998167455739143,4.902459544947148,0
rbt_606132,4.945634283742003,61.95,7.983267608945929,3.7509627366772964,0
smt_6510,26.15134595977372,327.6,7.982706336927264,4.8909004020723215,0
smt_19223,26.15080283891413,327.6,7.982540549119086,4.890784894093193,0
smt_22843,26.15034052799047,327.6,7.982399428568519,4.8906866121955215,0
smt_6737,26.149937275750062,327.6,7.982276335699042,4.8906009154477905,0
smt_24665,26.149411777149876,327.6,7.982115927090925,4.890489281473135,0
smt_24635,26.148868865101,327.6,7.981950203022283,4.890373998041139,0
smt_24637,26.14830707087556,327.6,7.981778715163479,4.890254758323119,0
smt_24636,26.147757660652356,327.6,7.981611007525139,4.8901381994411315,0
smt_19174,26.147257416802038,327.6,7.98145830793713,4.890032116353717,0
smt_6686,26.14666725464295,327.6,7.98127816075792,4.88990702011386,0
smt_19173,26.145674769308336,327.6,7.9809752043065725,4.889696778334728,0
smt_19172,26.145339379761353,327.6,7.98087282654498,4.889625769701355,0
smt_6544,26.144973399772624,327.6,7.980761111041704,4.889548306484308,0
smt_6535,26.14443243162956,327.6,7.980595980350904,4.889433847336993,0
smt_24634,26.14324976660144,327.6,7.98023497149006,4.8891837909593425,0
smt_24633,26.142827702733992,327.6,7.980106136365688,4.889094609741925,0
smt_24632,26.142373662159702,327.6,7.9799675403417885,4.888998706019248,0
smt_1873,26.14192677281053,327.6,7.97983112723154,4.888904347290247,0
smt_24631,26.14152632389873,327.6,7.979708890078976,4.888819823306393,0
smt_6527,26.14111027848246,327.6,7.979581892088664,4.888732036407002,0
smt_24511,26.140870326789866,327.6,7.9795086467612535,4.8896283999032235,0
smt_29446,26.140204371496296,327.6,7.979305363704607,4.889483873216016,0
smt_32671,26.139765144796456,327.6,7.979171289620407,4.889388593831163,0
smt_6389,26.13928028923147,327.6,7.9790232873111915,4.889283455199879,0
smt_24510,26.13926539804792,327.6,7.97901874177287,4.889280226708271,0
smt_24509,26.13874988243561,327.6,7.97886138047485,4.889168485814455,0
smt_24508,26.138297982936145,327.6,7.978723438014695,4.88907057196527,0
smt_6426,26.137890589454095,327.6,7.978599081029943,4.888982331664379,0
smt_6420,26.137475221245836,327.6,7.978472289757581,4.888892393686941,0
smt_6140,26.137026360540123,327.6,7.9783352748901475,4.88879523734754,0
smt_6653,26.136598207826264,327.6,7.978204581143547,4.88870259581472,0
smt_6650,26.13617632077959,327.6,7.9780757999937695,4.888611341117629,0
smt_29445,26.135762462786122,327.6,7.977949469714933,4.8885218530343115,0
smt_24507,26.135336700225004,327.6,7.977819505563187,4.888429821858407,0
smt_24506,26.134912372228918,327.6,7.977689979312856,4.888338132007278,0
smt_24505,26.134474475816656,327.6,7.977556311299345,4.888243542956825,0
smt_24459,26.134098733282073,327.6,7.977441615775968,4.888162406145601,0
smt_24458,26.133646134327602,327.6,7.97730345980696,4.888064705619615,0
smt_24457,26.13319068674851,327.6,7.977164434294417,4.88796642598096,0
smt_24456,26.132771870794006,327.6,7.977036590596461,4.887876082697617,0
smt_24455,26.132341900572296,327.6,7.976905342055035,4.887783364903998,0
smt_24454,26.131929380655986,327.6,7.97677942022466,4.887694440148823,0
smt_19165,26.131473873814336,327.6,7.976640376622202,4.887596283152529,0
smt_17113,26.13099758525538,327.6,7.976494989394194,4.887493686322305,0
smt_6993,26.129952570742617,327.6,7.976175998395181,4.8872687184365775,0
smt_24453,26.129318435130934,327.6,7.975982428306145,4.8871322955382235,0
smt_24452,26.128827592579494,327.6,7.9758325984674885,4.887026747304557,0
smt_24451,26.128397384729407,327.6,7.975701277389928,4.886934271880212,0
smt_24450,26.127990986334574,327.6,7.9755772241558525,4.886846943788583,0
smt_6394,26.127546365645404,327.6,7.975441503554763,4.886751435096219,0
smt_24668,26.120083980073755,327.6,7.973163608081121,4.885153528143503,0
smt_29393,26.11990977108409,327.6,7.973110430733849,4.885116339595129,0
smt_19218,26.118445502960842,327.6,7.9726634624422585,4.884803967540473,0
smt_6502,26.11793591722692,327.6,7.972507911241427,4.884695344237877,0
smt_24667,26.11766960442291,327.6,7.972426619176712,4.884638594762273,0
smt_6683,26.116953534811714,327.6,7.972208038709313,4.884486065614555,0
smt_19220,26.11637247150136,327.6,7.972030668956459,4.884362358837103,0
smt_22844,26.115968345022154,327.6,7.971907309225321,4.8842763556258015,0
smt_6687,26.11552426482368,327.6,7.971771753609182,4.884181882158875,0
smt_24666,26.11519132573314,327.6,7.9716701238501635,4.884111075070318,0
rbt_623433,7.160322872082044,90.3,7.929482693335597,3.7311782870211476,0
rbt_626698,7.112834204706927,90.3,7.876892806984416,3.7022938535450454,0
rbt_1607252,5.992443076394297,76.65,7.817929649568554,3.676815623154136,0
rbt_637356,4.684030850566628,61.95,7.560986038041367,3.5543461185337613,0
rbt_631391,6.741422780645423,90.3,7.465584474690392,5.654114944994418,0
rbt_605855,5.558212347590424,76.65,7.251418587854435,3.4110925026377497,0
rbt_1607255,6.492776635716948,90.3,7.190228832466166,3.380110511960203,0
rbt_636933,5.405166216443559,76.65,7.051749793142282,3.318293013051394,0
rbt_605910,4.246706986281491,61.95,6.855055667928153,3.2201752350519968,0
rbt_627343,6.148309173195529,90.3,6.808758774302912,3.199478209394671,0
rbt_1607304,4.131419332982635,61.95,6.6689577610696285,3.131919515647045,0
rbt_1607305,5.835266694812878,90.3,6.462089363026443,3.0382356608780174,0
rbt_1607285,3.9651754108899264,61.95,6.400605990137088,3.0051617975337463,0
rbt_606103,4.816521458620047,76.65,6.283785334142265,2.953922198716364,0
rbt_3405846,4.800542503339736,76.65,6.262938686679369,2.945247988810122,0
rbt_606109,3.8242459174203742,61.95,6.173116896562347,2.9001060373950094,0
rbt_605825,5.5716080139471185,90.3,6.170108542577097,2.90150425277394,0
sbt_4580,10.020820539868117,163.8,6.1177170573065425,2.878822683228124,0
rbt_1631852,5.515842857524585,90.3,6.108353109108068,2.871259620736574,0
rbt_605993,5.48398132066881,90.3,6.07306901513711,2.8542018681851467,0
rbt_621999,5.443882642974342,90.3,6.028662949030279,2.8338884259196484,0
rbt_630753,5.439846541535015,90.3,6.024193290736451,2.833164399152245,0
sbt_28279,12.992224606890733,216.3,6.006576332358176,2.980496227058579,0
sbt_20214,12.99221717535587,216.3,6.006572896604656,2.9804965159832464,0
sbt_6049,9.829181349856638,163.8,6.000721214808692,2.8240241647805777,0
smt_6110,19.413888025386026,327.6,5.92609524584433,3.373670945793529,0
rbt_607384,3.60176075917595,61.95,5.813980240800564,2.731704299933861,0
rbt_1607278,4.449618329482758,76.65,5.805111975841823,2.7278063021305154,0
rbt_1628760,5.225418143240062,90.3,5.786731055636835,2.719039509125278,0
smt_24515,18.933668679553133,327.6,5.7795081439417375,3.346905975919904,0
smt_6552,18.93327341793917,327.6,5.779387490213421,3.3468106755854676,0
smt_6549,18.932751146403263,327.6,5.779228066667661,3.3466848069248516,0
smt_23959,18.93229507665703,327.6,5.779088851238409,3.346574943928159,0
smt_22744,18.931747924974527,327.6,5.778921833020307,3.346443202722804,0
smt_19175,18.931292842502824,327.6,5.778782918956906,3.346333681673748,0
smt_19177,18.93077464249991,327.6,5.778624738247835,3.3462090281813097,0
smt_19176,18.930230003120503,327.6,5.7784584869110205,3.34607808078267,0
smt_19164,18.929992854719746,327.6,5.7783860972892995,3.3460210844724814,0
smt_32311,18.929584780336352,327.6,5.7782615324592035,3.3459230378454543,0
smt_39119,18.92909529065541,327.6,5.778112115584679,3.345805480731285,0
smt_32312,18.929072307690426,327.6,5.778105100027602,3.3457999626393815,0
smt_32310,18.92905356876368,327.6,5.778099379964493,3.345795462583038,0
smt_32309,18.928600606119453,327.6,5.777961112979075,3.3456867304845885,0
smt_32314,18.92839351331913,327.6,5.777897897838562,3.345637033519021,0
smt_32313,18.92837778419622,327.6,5.777893096518992,3.345633259958294,0
smt_6802,18.92819745409499,327.6,5.777838050700546,3.4055556136233487,0
smt_24514,18.927631776918126,327.6,5.777665377569635,3.4054205756008273,0
smt_24513,18.92704427859793,327.6,5.777486043528061,3.405280402964827,0
smt_19166,18.926583261778394,327.6,5.777345318003172,3.4051704610427547,0
smt_6414,18.92613322674634,327.6,5.777207944672265,3.40506318317972,0
smt_18852,18.9256777384314,327.6,5.777068906725091,3.4049546508233166,0
smt_6403,18.925172321249804,327.6,5.776914627976129,3.4048342750365155,0
smt_1832,18.92473293411825,327.6,5.7767805049201,3.404729671470706,0
smt_1831,18.924304852893485,327.6,5.7766498329955684,3.4046278003843113,0
smt_1829,18.923464364668448,327.6,5.776393273708317,3.404427905832501,0
smt_1828,18.922855917418904,327.6,5.776207544999664,3.4042832952002455,0
rbt_3433894,5.194728952347859,90.3,5.752745240695304,2.7047615818959785,0
smt_6350,18.82804903551516,327.6,5.747267715358718,3.3297660820904915,0
smt_24517,18.82582670107957,327.6,5.746589347093885,3.329452306250817,0
smt_24520,18.82514555496513,327.6,5.746381427034533,3.3292879677216938,0
smt_19116,18.824823910850125,327.6,5.746283245070245,3.3292104022910465,0
rbt_1607357,4.3826362492665965,76.65,5.717725047966858,2.687415015989615,0
rbt_605806,4.787476985695829,90.3,5.301746385045215,2.4916137790432162,0
rbt_622714,4.7146002151542605,90.3,5.2210412127954156,2.4552751845445155,0
smt_6066,8.480328777657807,163.8,5.177245896005987,3.0045337715138434,0
smt_6062,8.479900095640328,163.8,5.176984185372605,3.0044213182578523,0
smt_6719,8.479426576036715,163.8,5.176695101365516,3.0042975760905555,0
smt_6176,8.478892548663012,163.8,5.176369077327846,3.004157359965603,0
smt_6144,8.478393594013697,163.8,5.176064465209827,3.004027461943615,0
smt_6227,8.477864438055507,163.8,5.1757414151743015,3.003889569154006,0
smt_19063,8.477352982111784,163.8,5.175429171008415,3.003756848411781,0
smt_6092,8.47684586691283,163.8,5.17511957686986,3.003624883218668,0
smt_29474,8.476406383148172,163.8,5.17485127176323,3.0035122025799086,0
smt_29473,8.475914247424019,163.8,5.1745508226031856,3.003385668390944,0
smt_19115,8.475421737316605,163.8,5.174250144881932,3.003258035968553,0
smt_24512,8.475033299901833,163.8,5.174013003603072,3.003153771027199,0
rbt_1607258,3.941063489506255,76.65,5.141635341821598,2.418136783119173,0
smt_37840,8.371121795128936,163.8,5.110574966501182,2.9758859709832244,0
smt_6474,8.370771785569792,163.8,5.110361285451643,2.97579436809114,0
smt_19061,8.370338092033201,163.8,5.110096515282784,2.975680121493371,0
smt_29476,8.369914263587818,163.8,5.109837767758131,2.975569733592599,0
smt_6594,8.369396580910221,163.8,5.109521722167412,2.975434264486188,0
smt_29475,8.368874425409834,163.8,5.109202945915649,2.9752972892516385,0
smt_19011,8.368424194890668,163.8,5.108928079908832,2.9751808046765302,0
smt_19014,8.367907928799747,163.8,5.108612899145144,2.975046818135665,0
rbt_627328,4.601425672937663,90.3,5.095709493840158,2.39857967685028,0
sbt_5830,8.26848712878888,163.8,5.047916440042051,2.375365110993488,0
rbt_621168,3.829562981268906,76.65,4.996168273018794,2.348460118527097,0
rbt_605815,4.493796816417447,90.3,4.976519176542023,2.340415248335651,0
rbt_1107330,4.492544539886224,90.3,4.975132380826384,2.3416556285158197,0
rbt_621171,3.0748071938603467,61.95,4.963369158773764,2.33185576360643,0
rbt_3422597,4.473539517250555,90.3,4.95408584413129,2.330099957133684,0
rbt_606127,3.052087387425167,61.95,4.926694733535378,2.314665019562423,0
rbt_635966,3.0351607682154618,61.95,4.899371700105668,2.3020702294012887,0
rbt_1124041,4.41379996409661,90.3,4.887929085378306,2.2990388110739257,0
rbt_605921,3.6373701433402537,76.65,4.745427453803331,2.23076746425598,0
sbt_14007,7.7303678741982935,163.8,4.719394306592364,2.2203144630545024,0
sbt_25907,10.170598387432582,216.3,4.702079698304476,1.8011297633119827,0
sbt_21361,10.1705916883627,216.3,4.70207660118479,1.8011298630743928,0
sbt_20771,10.170586338956744,216.3,4.702074128042877,1.8011320085259592,0
rbt_627336,4.2224097147830095,90.3,4.675979750590265,2.1971558662391653,0
rbt_1627321,4.206512034969423,90.3,4.658374346588508,2.18986818011697,0
rbt_1607355,4.188704254948481,90.3,4.638653659965096,2.1803998241326643,0
rbt_605902,2.8732126081393052,61.95,4.637954169716393,2.1795111475540456,0
sbt_35173,5.835266300072109,128.1,4.555243013327174,2.141706785891604,0
rbt_1607358,3.4877109159251125,76.65,4.550177320189317,2.13905480982346,0
sbt_21952,9.829180524751754,216.3,4.544235101595818,2.1385809282557213,0
sbt_20840,7.400526310203697,163.8,4.518025830405187,2.1263517338711333,0
sbt_6273,7.393959602098966,163.8,4.51401685109827,2.1234105299179435,0
smt_6536,12.855703013975404,286.65,4.4848083076837275,2.635391325527523,0
smt_6703,12.855104932193363,286.65,4.484599662373404,2.6352460651093277,0
smt_6514,12.854518346808778,286.65,4.484395027667461,2.635103748384811,0
smt_6984,12.854428800552682,286.65,4.484363788785168,2.635082035749608,0
smt_5854,12.853517588289218,286.65,4.4840459055605155,2.634861291713824,0
smt_5855,12.852834737771428,286.65,4.483807688041663,2.634696106870019,0
smt_5657,12.852274963315473,286.65,4.4836124065290335,2.634560846940991,0
smt_21743,12.851684723884684,286.65,4.483406497081697,2.634418374335987,0
smt_22741,12.851079840252485,286.65,4.483195478894989,2.6342725254202217,0
smt_6098,12.850599205348624,286.65,4.483027805807998,2.634156749760502,0
smt_19120,12.850041755615381,286.65,4.482833335292302,2.634022598057816,0
smt_22740,12.849489929477539,286.65,4.482640826609991,2.6338899343119535,0
smt_22738,12.833460402135753,286.65,4.477048805908165,2.6280577977492254,0
smt_6754,12.832958247308357,286.65,4.476873625434627,2.627935943256364,0
smt_6567,12.832447710223708,286.65,4.476695520747849,2.6278121674634165,0
smt_6746,12.831940124347772,286.65,4.47651844561234,2.627689220060159,0
smt_6812,12.831441226747195,286.65,4.47634440144678,2.627568486944194,0
rbt_3405838,4.017110108499743,90.3,4.448626919711787,2.0935890578665717,0
rbt_622273,2.557087014752235,57.75,4.427856302601272,2.0844176509723904,0
rbt_1107341,2.7390545296336275,61.95,4.421395528060739,2.0801598588084276,0
rbt_638617,2.7283200292592014,61.95,4.404067843840519,2.0718783063945017,0
rbt_605828,3.968671791760447,90.3,4.394985372935158,2.0684995192021383,0
rbt_1607292,3.8932560482774154,90.3,4.311468492001567,2.027310434841542,0
rbt_1626490,3.851470312592087,90.3,4.265194144620251,3.230569490689341,0
rbt_1635060,2.642096667806182,61.95,4.264885662318292,2.0056722437793533,0
sbt_37156,6.961821970154224,163.8,4.250196562975717,1.9970011092372502,0
rbt_605867,3.829321779189471,90.3,4.2406664221367345,1.9942021004917627,0
sbt_4615,6.8663178189772704,163.8,4.191891220376844,1.9736417323690751,0
sbt_3373,6.866316638328163,163.8,4.191890499589842,1.9736409438217584,0
sbt_20793,6.866315552586257,163.8,4.191889836743747,1.9736402254836298,0
sbt_4010,6.866313865808634,163.8,4.191888806964977,1.9736391217419194,0
sbt_28804,6.8663123304187295,163.8,4.191887869608504,1.9736381292681513,0
rbt_605812,3.7391126211668433,90.3,4.14076702233316,1.9489960982153471,0
rbt_632613,3.736030132517242,90.3,4.137353413640357,1.9462290350640623,0
rbt_622713,3.7175991710407854,90.3,4.11694260358891,1.9346413772204387,0
rbt_606120,2.5385839389909752,61.95,4.097794897483414,1.9247965356651295,0
sbt_26269,8.789999357125291,216.3,4.063799980178128,1.9110878217063998,0
smt_7052,6.5812124374207555,163.8,4.017834210879582,2.15513350742683,0
rbt_1132019,3.6194350888133506,90.3,4.008233763912902,1.8847610169749147,0
rbt_605863,3.6018610401309026,90.3,3.988771915981066,1.8761297510979855,0
rbt_634166,3.0271948081428897,76.65,3.9493735266052052,1.8559363298508817,0
rbt_1138614,2.4301677330816305,61.95,3.922788915386005,1.8445836222185745,0
sbt_4118,11.164686511056916,286.65,3.8948845320275307,1.4399152824492087,0
rbt_605803,3.4982562066837777,90.3,3.8740378811558998,1.8212447437543722,0
smt_37837,8.37171025888161,216.3,3.870416208451969,2.2537015684629322,0
smt_37841,8.371344279625049,216.3,3.8702470086107486,2.253627245797957,0
rbt_605834,3.4725847521035416,90.3,3.845608806316214,1.810612696134388,0
rbt_605904,2.376654125728013,61.95,3.836406982611805,1.8012899580591055,0
smt_29484,6.281647934974583,163.8,3.834949899251882,1.8996686175250421,0
smt_22951,6.281634523687632,163.8,3.834941711653011,1.8996603526078022,0
smt_19381,6.280305519445712,163.8,3.8341303537519607,1.8988425025005196,0
smt_18804,6.27961356220496,163.8,3.8337079134340417,1.8984175230332656,0
smt_19380,6.278820540075033,163.8,3.8332237729395806,1.8979311841730147,0
smt_5349,6.278185123899002,163.8,3.8328358509761915,1.8975420513194272,0
smt_18803,6.277539698006107,163.8,3.832441818074546,1.8971472915472312,0
smt_13454,6.276880618135932,163.8,3.8320394494114356,1.896744705570405,0
smt_19377,6.276097109834987,163.8,3.8315611171153763,1.896266807532739,0
smt_29411,6.27511200378913,163.8,3.830959709272973,1.89566701763688,0
smt_8954,6.274506703518485,163.8,3.830590173088208,1.8952990702607357,0
smt_5584,6.273801059958734,163.8,3.830159377264184,1.8948707002663205,0
rbt_605810,2.9310286142456383,76.65,3.823912086426142,1.7973309184152877,0
rbt_605864,3.443768539793861,90.3,3.813697164777255,1.7938093681327547,0
rbt_609682,2.9029931533349003,76.65,3.7873361426417484,1.7818872279926377,0
rbt_622703,2.3295387908382392,61.95,3.7603531732659228,2.8486507048073157,0
rbt_605835,3.3937339141894722,90.3,3.758287834096868,1.7694825609270206,0
sbt_14006,6.144888107420226,163.8,3.751457941037989,1.7642852690047797,0
smt_25186,6.062836607461998,163.8,3.7013654502209996,2.0007345078684144,0
sbt_27416,8.000815991688752,216.3,3.6989440553346054,1.7396694618698103,0
sbt_15213,8.000815936359885,216.3,3.6989440297549163,1.739669449914003,0
rbt_606128,2.820203121069043,76.65,3.6793256634951637,1.7291749613258247,0
rbt_1607257,3.2924172023115412,90.3,3.6460877102010425,1.713980851437338,0
rbt_607385,3.285660006203743,90.3,3.638604658032938,1.7115037931787425,0
rbt_3405845,3.2751001722309607,90.3,3.6269104897352835,1.707387647952542,0
rbt_633056,3.2709324368480672,90.3,3.622295057417572,1.7031852368905633,0
rbt_606141,3.2670355220407603,90.3,3.6179795371436994,1.7033389894727853,0
rbt_623015,3.258649524027305,90.3,3.6086927176382115,2.733432676177042,0
sbt_34389,4.601424430788759,128.1,3.5920565423799835,2.764391329037959,0
smt_37855,7.732265275785519,216.3,3.574787459910087,1.9500543968831119,0
smt_37854,7.731881855656664,216.3,3.5746101967899504,1.9500082824321447,0
smt_37853,7.731528986433724,216.3,3.5744470579906253,1.9499677863509624,0
smt_37852,7.731166753970406,216.3,3.574279590370044,1.949924995601058,0
smt_37851,7.73082554033498,216.3,3.5741218401918537,1.9498864622360628,0
smt_37850,7.730470595041809,216.3,3.5739577415819737,1.9498458436185426,0
smt_37849,7.730117064468119,216.3,3.5737942970264074,1.9498062718707245,0
smt_37848,7.729750869550107,216.3,3.5736249974804006,1.9497648103274745,0
smt_37847,7.729386015264816,216.3,3.573456317736854,1.9497184921403639,0
smt_37846,7.7291295560803235,216.3,3.5733377513085176,1.9496943594227378,0
smt_37845,7.728779471551055,216.3,3.5731758999311394,1.9496564964586953,0
smt_38000,7.728406277946248,216.3,3.5730033647463,1.9496122991146352,0
smt_38002,7.7280901938504405,216.3,3.572857232478243,1.94956196584138,0
smt_38001,7.7280819979094675,216.3,3.57285344332384,1.9495613432964787,0
smt_37843,7.728069553831661,216.3,3.5728476901672033,1.9495765895172896,0
smt_37842,7.727725284379574,216.3,3.5726885272212545,1.9495304350462759,0
smt_37838,7.727547349714654,216.3,3.5726062643156054,1.949516442044187,0
rbt_605982,3.192055995821269,90.3,3.5349457318064994,1.6633118298157032,0
rbt_1606000,3.1909940263536165,90.3,3.533769685884404,1.6614893517386597,0
rbt_1629639,3.177596020286322,90.3,3.5189324698630364,1.6533482888259432,0
sbt_3952,5.743422433336502,163.8,3.5063629019148363,1.6502750927572547,0
sbt_4120,5.743421033996942,163.8,3.50636204761718,1.6502741809726265,0
sbt_20855,5.743419667725926,163.8,3.5063612135078914,1.65027329842614,0
sbt_20854,5.743418368244118,163.8,3.5063604201734537,1.6502724657622558,0
rbt_635963,2.1715792319430447,61.95,3.505374062862057,1.6464963561840527,0
rbt_626481,3.122927311757393,90.3,3.4583912644046437,1.6256817701505002,0
rbt_1607306,2.633333734541766,76.65,3.435529986355859,1.6154772630572076,0
rbt_605901,3.092723075286907,90.3,3.424942497549177,1.6093648666626856,0
rbt_605820,2.62044912009605,76.65,3.418720313236855,1.6080846602926713,0
rbt_3405847,3.0854381192058944,90.3,3.4168749935834937,1.6084211832868067,0
sbt_34000,7.347057601622802,216.3,3.3966979203064267,1.5966858714393657,0
rbt_1607289,2.6033607675738266,76.65,3.3964263112509148,1.5961217927632194,0
smt_6512,9.665486714439165,286.65,3.371877451400372,1.993678719181813,0
smt_6425,9.665085359655523,286.65,3.3717374357772627,1.9935912848449686,0
smt_6930,9.664470480541588,286.65,3.3715229305918677,1.9934575381668358,0
sbt_20828,5.512199361486541,163.8,3.365201075388608,1.5817876164609153,0
smt_15243,5.478446253483181,163.8,3.344594782346264,1.9880375632104696,0
smt_26472,5.477982777128069,163.8,3.3443118297485155,1.9879281041001338,0
smt_14780,5.4774574618795615,163.8,3.3439911244685967,1.9878032878026792,0
smt_14754,5.476933265384961,163.8,3.3436711021886207,1.9876793774894865,0
smt_14729,5.476411677105231,163.8,3.3433526722254157,1.9920776198559713,0
smt_21229,5.47588217967091,163.8,3.343029413718504,1.9919545207078067,0
smt_26474,5.475383210410215,163.8,3.3427247926802286,1.9918384556805169,0
smt_22453,5.474943112386616,163.8,3.3424561125681413,1.9917396978096866,0
smt_14544,5.474414466811615,163.8,3.3421333741218646,1.991619356369194,0
smt_14113,5.473886476825666,163.8,3.3418110359131052,1.9915011072136544,0
smt_22508,5.473307207188837,163.8,3.341457391446176,1.9913691675691496,0
smt_14452,5.472796506729138,163.8,3.3411456085037474,1.9912529157081884,0
smt_30311,5.4723679416063185,163.8,3.3408839692346266,1.9911601610531517,0
smt_26478,5.4718394201882985,163.8,3.3405613065862627,1.991040809583473,0
sbt_37537,7.2226448523015225,216.3,3.339179312205974,1.3285012724206182,0
sbt_37545,7.22263622607806,216.3,3.3391753241230044,1.3285018544821467,0
sbt_37546,7.222619543435844,216.3,3.3391676113896644,1.328500764441982,0
sbt_37539,7.2141080668726465,216.3,3.335232578304506,1.9040479511352049,0
sbt_37538,7.214102548662937,216.3,3.3352300271210984,1.9040484725292863,0
rbt_1609690,2.993768160986331,90.3,3.3153578748464354,1.5578378497471685,0
smt_22686,9.463277405797594,286.65,3.301335219186323,2.046749104081422,0
smt_6239,9.462803256366639,286.65,3.301169808605142,2.046642991924671,0
smt_23961,9.462340402776505,286.65,3.3010083386626565,2.04653954333453,0
smt_37856,7.139783853616179,216.3,3.30087094480637,1.8336279849134265,0
smt_29407,9.461869532012292,286.65,3.300844071868932,2.0464344406188055,0
smt_6278,9.46144776806247,286.65,3.300696936355301,2.0463404170747936,0
smt_6630,9.460955980234338,286.65,3.3005253724871233,2.0462309243012444,0
smt_19070,9.460461809135202,286.65,3.3003529771970004,2.046121054215844,0
smt_6639,9.459967889440932,286.65,3.3001806696113496,2.0460113938389983,0
smt_19117,9.459506805387587,286.65,3.3000198169850297,2.0459091626793415,0
smt_21514,9.454210608104516,286.65,3.298172198885232,2.040113231071909,0
smt_5615,9.453734065817201,286.65,3.2980059535381834,2.0400049773080053,0
smt_18742,9.453362916246142,286.65,3.2978764752297725,2.0399207620444972,0
smt_6270,9.452779961822303,286.65,3.2976731072116885,2.0397886591183094,0
smt_5967,9.45232651116225,286.65,3.2975149175518053,2.039686048229959,0
smt_5772,9.451791554308143,286.65,3.2973282938455064,2.0395651571365487,0
smt_6158,9.451262423175306,286.65,3.2971437024857164,2.0394457571725932,0
smt_6263,9.450804135563475,286.65,3.296983825418969,2.0393424838940155,0
smt_6384,9.450235735312445,286.65,3.296785534733105,2.039214578785343,0
smt_22684,9.449679520619167,286.65,3.2965914950703534,2.039089610796328,0
smt_22685,9.449225653118067,286.65,3.2964331599923486,2.0389877809401655,0
smt_29447,9.448749766591439,286.65,3.2962671434123285,2.038881149349877,0
smt_19065,9.448239912220924,286.65,3.2960892768954904,2.038767064107355,0
smt_24385,9.44766375620616,286.65,3.295888280553344,2.03863833958411,0
smt_29448,9.445505862710542,286.65,3.2951354832410753,2.0253772743993443,0
smt_6824,9.445041929005601,286.65,3.294973636492448,2.025269567791409,0
smt_6855,9.444544426397837,286.65,3.2948000789805816,2.0251542140722094,0
smt_19062,9.443963379852434,286.65,3.294597376540183,2.0250196813703045,0
smt_7054,9.443501492038703,286.65,3.294436243516031,2.0249128859291665,0
smt_6446,9.443029526030028,286.65,3.29427159463807,2.024803895683661,0
smt_39006,9.44254592495576,286.65,3.294102886780311,2.0246923608499166,0
smt_39008,9.442108896748838,286.65,3.2939504262162353,2.0245916913122057,0
smt_39007,9.442090477636572,286.65,3.2939440005709306,2.0245874507735495,0
smt_6122,9.441671035028715,286.65,3.2937976748748357,2.0244909477731277,0
smt_18741,9.44114167731055,286.65,3.2936130044690572,2.0243693114961694,0
smt_5938,9.44065119404126,286.65,3.293441895706004,2.024256762739783,0
smt_5946,9.440084755368328,286.65,3.293244289331355,2.0241269706531773,0
sbt_34382,4.214413010440336,128.1,3.2899398988605277,1.5461053181398572,0
rbt_1625170,2.9691926746733674,90.3,3.2881424968697317,1.5451532821772969,0
rbt_605821,4.198412151617846,128.1,3.2774489864307927,1.5398976446216952,0
sbt_35105,4.188703894592104,128.1,3.269870331453633,1.5370028634877018,0
smt_856,5.341318401783461,163.8,3.2608781451669477,1.947599082657841,0
smt_15622,5.340737478416873,163.8,3.260523491096992,1.9474579552222593,0
smt_23196,5.3404145883387315,163.8,3.2603263665071616,1.9473837743236466,0
smt_15581,5.340068407597809,163.8,3.260115022953485,1.9473046610967168,0
smt_15568,5.339693649940251,163.8,3.2598862331747567,1.9472183313879488,0
rbt_605988,2.9300663592805307,90.3,3.244813243943002,1.5272685768476915,0
rbt_605804,1.9869293016785228,61.95,3.207311221434258,1.5073575711583196,0
smt_23147,5.2383492215143415,163.8,3.198015397749903,1.9165413217859228,0
smt_16038,5.238032655429404,163.8,3.1978221339617847,1.9164823273496518,0
smt_13546,5.195447755691952,163.8,3.171824026673963,1.8980420779355338,0
smt_21225,5.195136110555321,163.8,3.1716337671277905,1.8979677949008658,0
smt_13930,5.194575403482346,163.8,3.171291455117427,1.8978265745443759,0
smt_21226,5.194018710023972,163.8,3.170951593421228,1.8976847335353926,0
smt_13280,5.193592773664533,163.8,3.170691559013756,1.8975783226330654,0
smt_14437,5.193187266466647,163.8,3.1704439966218843,1.8974779572821714,0
sbt_6048,5.192992241413741,163.8,3.170324933708022,1.4920805683106708,0
smt_13955,5.192778387576004,163.8,3.1701943758095257,1.8973772802969922,0
smt_26469,5.192364133842328,163.8,3.1699414736522145,1.8972744932177188,0
smt_20808,5.192002078339248,163.8,3.169720438546549,1.897186439594669,0
smt_23095,5.191622938009725,163.8,3.16948897314391,1.8970898986980076,0
smt_20807,5.191431734658574,163.8,3.169372243381302,1.897048491486338,0
smt_13717,5.191028605546908,163.8,3.16912613281252,1.8969491959704623,0
rbt_605829,2.8563972357250154,90.3,3.16323060434664,1.48716385791857,0
smt_37925,6.8286164199417225,216.3,3.157011752169081,1.7629100969381313,0
smt_37924,6.828443987390535,216.3,3.156932033005332,1.762905416758602,0
smt_37923,6.8280749862638785,216.3,3.1567614360905583,1.7628711075401104,0
smt_37864,6.827711251698752,216.3,3.156593274016991,1.7628266228182905,0
smt_37863,6.827538934208921,216.3,3.156513608048507,1.7628108913454987,0
smt_37862,6.8273668027365195,216.3,3.156434028079759,1.7628018519137736,0
smt_37861,6.827082492560909,216.3,3.156302585557517,1.7627797158450047,0
smt_37860,6.826738316218141,216.3,3.156143465657948,1.762749960519583,0
smt_37859,6.8263753989320035,216.3,3.1559756814294975,1.7627120722751524,0
smt_37858,6.8261050026530325,216.3,3.1558506715917853,1.7626943916875757,0
smt_37831,6.825731134361728,216.3,3.155677824485311,1.7626495949524497,0
sbt_15045,6.825076054338287,216.3,3.1553749673316167,1.4843449231714223,0
smt_37898,6.807778974189759,216.3,3.1473781665232354,1.7556721554634966,0
smt_37897,6.807368485119473,216.3,3.14718838886707,1.7556201112967227,0
smt_37896,6.807011826028257,216.3,3.1470234979326195,1.7555779342508524,0
smt_14797,5.154547233758399,163.8,3.1468542330637352,1.8792120573895426,0
smt_37895,6.806629266876112,216.3,3.1468466328599685,1.7555316171011779,0
smt_37894,6.806252829736967,216.3,3.146672598121575,1.7554857072871366,0
smt_23041,5.154137348737142,163.8,3.1466039980080227,1.8791080088317609,0
smt_37893,6.805896791299815,216.3,3.146507994128439,1.755443902236095,0
smt_14823,5.153721951134061,163.8,3.1463503975177414,1.8790030466005563,0
smt_37892,6.805525148389498,216.3,3.146336175861996,1.7553993100780183,0
smt_37891,6.805166693226439,216.3,3.1461704545660836,1.755357973146742,0
smt_13752,5.153300517432246,163.8,3.146093111985498,1.87888886879782,0
smt_37890,6.804785528370012,216.3,3.145994234105414,1.755318847611515,0
smt_37889,6.8042705028422255,216.3,3.145756127065291,1.7552481453250062,0
smt_37888,6.804011687733955,216.3,3.1456364714442695,1.7552176771878365,0
smt_37887,6.803763911890646,216.3,3.145521919505615,1.7551948446610586,0
smt_37886,6.803380484894912,216.3,3.1453446532107776,1.755150230340335,0
smt_37885,6.803011052388777,216.3,3.1451738568602754,1.7551082273585408,0
smt_37884,6.80263785275802,216.3,3.145001318889514,1.7550659294108584,0
smt_37883,6.802263407031163,216.3,3.1448282048225438,1.755024181302822,0
smt_37882,6.80187771821022,216.3,3.1446498928387516,1.7549803538043054,0
smt_37881,6.801504802794537,216.3,3.1444774862665446,1.7549390280780612,0
smt_37880,6.801126333752677,216.3,3.14430251213716,1.7548960460769993,0
smt_37879,6.80077054775582,216.3,3.1441380248524364,1.7548585251732067,0
smt_37878,6.800378264543829,216.3,3.1439566641441643,1.7548144849069631,0
smt_37877,6.8000092677901,216.3,3.1437860692510857,1.7547749585970862,0
smt_37876,6.7996267451307615,216.3,3.14360922104982,1.7547336677691228,0
smt_37875,6.799242474731697,216.3,3.1434315648320372,1.7546924416074345,0
smt_37874,6.798856680237319,216.3,3.1432532039932126,1.7546507067633137,0
smt_37873,6.798481973741354,216.3,3.143079969367246,1.754609629681399,0
smt_37945,6.798134126921416,216.3,3.14291915252955,1.7545680097465148,0
smt_37944,6.797886158055026,216.3,3.1428045113523004,1.7545440511683648,0
smt_37943,6.797595817687216,216.3,3.1426702809464704,1.754516250011741,0
smt_37942,6.797254351182178,216.3,3.142512413861386,1.7544806204690995,0
smt_37941,6.796915764113397,216.3,3.142355877999721,1.7544454827920155,0
smt_37940,6.796580313295406,216.3,3.1422007920921895,1.754411393918111,0
smt_37939,6.796237791251651,216.3,3.1420424370095477,1.75437680368689,0
smt_37938,6.795888038101091,216.3,3.1418807388354555,1.7543415375774039,0
smt_37937,6.7955342029951655,216.3,3.1417171534882873,1.7543055550011613,0
smt_37936,6.795186433080261,216.3,3.141556372205391,1.7542707308296797,0
smt_37935,6.79483849846868,216.3,3.141395514779787,1.754234332117811,0
smt_37934,6.794523774475121,216.3,3.1412500113153587,1.7542047565022596,0
smt_37933,6.7941798344973385,216.3,3.1410910006922506,1.754171046403694,0
smt_37932,6.7938339471547025,216.3,3.140931089761767,1.7541372661621066,0
smt_23225,5.140654124632303,163.8,3.1383724814605025,1.872212217558987,0
smt_21220,5.140189547673762,163.8,3.138088856943688,1.8720905314218772,0
smt_14845,5.139704173358344,163.8,3.1377925356278045,1.8719640016791768,0
smt_26425,5.139201644107638,163.8,3.137485741213454,1.8718333816929942,0
smt_20810,5.13870226065572,163.8,3.1371808673111845,1.871703005156209,0
smt_26429,5.138281698184716,163.8,3.136924113665883,1.8715947904653982,0
smt_26430,5.137864560156485,163.8,3.136669450644985,1.871487965520788,0
smt_21222,5.124802331116009,163.8,3.128694951841275,1.865783658068607,0
smt_14301,5.124462180914298,163.8,3.1284872899354688,1.8656923786380168,0
smt_23277,5.124032415858233,163.8,3.128224918106369,1.8655759185871534,0
rbt_1607316,2.824575817442357,90.3,3.127990938474371,2.3703848183080938,0
smt_26427,5.123628160379105,163.8,3.127978119889563,1.8654673947845222,0
smt_20812,5.123202093619221,163.8,3.12771800587254,1.8653532402100914,0
rbt_1107342,1.9375672934643962,61.95,3.1276308207657726,1.4706681001244313,0
smt_15154,5.122775072347919,163.8,3.127457309125713,1.8652389962214497,0
smt_14674,5.1223723483442125,163.8,3.1272114458755875,1.8651331419493404,0
smt_37986,6.717891260238821,216.3,3.1058212021446234,1.7763193725426083,0
smt_37987,6.717626823605517,216.3,3.105698947575366,1.7762807913186967,0
smt_37993,6.717288972385395,216.3,3.1055427519118792,1.7762260765609001,0
smt_37920,6.717120054989582,216.3,3.1054646578777536,1.7762057857665035,0
smt_37919,6.716710030762582,216.3,3.1052750951283317,1.776143999302734,0
smt_37918,6.7163075237932786,216.3,3.105089007763883,1.7760833742065243,0
smt_37917,6.715922466617188,216.3,3.104910987802676,1.7760262534749316,0
smt_37916,6.71552571671596,216.3,3.1047275620508366,1.7759672509460334,0
smt_37915,6.715134348154218,216.3,3.1045466242044464,1.775907057207262,0
smt_37914,6.714843606192573,216.3,3.104412208133413,1.7758663561516237,0
smt_37913,6.7144629487474425,216.3,3.1042362222595665,1.7758109939283917,0
smt_37912,6.714062362715455,216.3,3.1040510229844913,1.775752178437547,0
smt_40685,6.7136743820299944,216.3,3.1038716514239453,1.7756952112404207,0
smt_37911,6.7133068634966016,216.3,3.10370173994295,1.7756333762093046,0
smt_37910,6.713285321633407,216.3,3.1036917806904327,1.7756395806855927,0
smt_37909,6.712890884387888,216.3,3.1035094241275485,1.7755825194805055,0
smt_37908,6.712504209454425,216.3,3.103330656243377,1.7755274751874957,0
smt_40683,6.712099868338753,216.3,3.1031437209148187,1.7754689560062429,0
smt_37906,6.711724018811762,216.3,3.1029699578417764,1.7754158469422974,0
smt_37905,6.7113345584051345,216.3,3.1027899021752816,1.7753599630937913,0
smt_37904,6.7109719763489535,216.3,3.1026222729306303,1.775308854386344,0
smt_37903,6.710608301375852,216.3,3.1024541384076985,1.7752553450061284,0
smt_37963,6.66132864310957,216.3,3.079671124877286,1.7530213968016681,0
smt_37983,6.660826596977013,216.3,3.0794390184822067,1.7529386784234877,0
smt_37984,6.660316319037814,216.3,3.0792031063512777,1.7528547074043672,0
smt_37985,6.65981431394669,216.3,3.0789710189305084,1.7527724794471506,0
smt_37947,6.659320470286734,216.3,3.0787427047095393,1.7526913323704856,0
smt_37948,6.6588687297433236,216.3,3.078533855637228,1.7526183599292968,0
sbt_22669,6.6575915790331335,216.3,3.077943402234458,1.4471456840508636,0
rbt_3405987,1.9060170276666364,61.95,3.0767022238363784,1.4485302170787255,0
rbt_1132012,2.767513401515004,90.3,3.0647988942580335,1.440478892551121,0
rbt_1607268,2.3467117639318307,76.65,3.0615939516397006,1.4388243340291764,0
sbt_35588,6.604932062597379,216.3,3.0535978097999896,1.435098008176766,0
rbt_605823,2.754623482885935,90.3,3.0505243442812127,1.434637424361916,0
smt_29426,6.581934133671782,216.3,3.0429653877354514,1.6323697267683246,0
sbt_21281,4.9456329013514075,163.8,3.0193119055869397,1.4186324902395828,0
rbt_605989,2.6918490341811823,90.3,2.981006682371188,1.401100829488241,0
rbt_1121173,2.686633067674048,90.3,2.9752304182436857,1.3995543078114634,0
rbt_605807,2.679602167445931,90.3,2.9674442607374654,1.3962483627944022,0
rbt_606130,2.25763172410846,76.65,2.9453773308655706,1.384017676046646,0
sbt_3491,4.8165182323238,163.8,2.9404873213210005,1.3822820889209393,0
rbt_637399,1.8108957628527138,61.95,2.923157002183557,1.37367270880428,0
sbt_21191,4.778053759105527,163.8,2.9170047369386607,1.3715852863528992,0
sbt_26310,4.71459980966442,163.8,2.8782660620661904,1.353548886168139,0
rbt_637705,2.584046385449974,90.3,2.861623904152795,2.167789114973973,0
smt_37960,6.172707491607421,216.3,2.853771378459279,1.6664401131964468,0
smt_37962,6.172273372276911,216.3,2.8535706760411053,1.666371393908056,0
rbt_1105833,2.5760888349242577,90.3,2.852811555840817,1.341070929447137,0
smt_37981,6.152097159456679,216.3,2.8442427921667495,1.6413082052692225,0
smt_37951,6.151691529016798,216.3,2.844055260756726,1.6412405952429603,0
smt_37952,6.151285186624763,216.3,2.843867400196377,1.6411747987582592,0
smt_37953,6.1507849631874825,216.3,2.8436361364713276,1.641091833289379,0
smt_37954,6.150303055118539,216.3,2.8434133403229493,1.6429696110646497,0
smt_37955,6.149780077003527,216.3,2.8431715566359346,1.6428820935678692,0
smt_37956,6.149359559755615,216.3,2.842977142744158,1.642815041387921,0
smt_37957,6.148862160559247,216.3,2.842747184724571,1.6427343566572146,0
smt_37958,6.14836756955985,216.3,2.842518524992996,1.6426547876420792,0
smt_37959,6.147863521582725,216.3,2.8422854931034323,1.6425737733142929,0
rbt_1607276,2.5661897270827843,90.3,2.841849088685254,1.3353926175747555,0
smt_25183,6.062206637016683,216.3,2.8026845293650866,1.5148277807584494,0
smt_25117,6.061563339783898,216.3,2.802387119641192,1.5145303288453256,0
smt_25116,6.060902033771973,216.3,2.802081384083205,1.514224836148524,0
smt_25115,6.060384607809759,216.3,2.8018421672721954,1.5139860122700497,0
smt_25114,6.059930476041002,216.3,2.801632212686547,1.5137765497801994,0
smt_25113,6.059400489228141,216.3,2.801387188732381,1.5135322745055213,0
smt_25112,6.058840634939224,216.3,2.8011283564212777,1.5132744376465324,0
smt_25111,6.058473836037062,216.3,2.800958777640805,1.5131056252443689,0
smt_25110,6.058208896369471,216.3,2.800836290508308,1.5129837480029948,0
smt_25109,6.057510087030789,216.3,2.8005132163803923,1.5126625096767023,0
smt_25108,6.0569780257896575,216.3,2.800267233374784,1.5124181458400148,0
smt_25107,6.056261234816432,216.3,2.799935845962289,1.5120892433407558,0
smt_25106,6.0556353732836135,216.3,2.7996464971260346,1.5118023500379847,0
smt_25105,6.0549951119539065,216.3,2.799350490963433,1.5115091324888568,0
smt_37979,6.054481922072001,216.3,2.7991132325806753,1.6309682212954313,0
smt_29427,6.054354512701525,216.3,2.7990543285721334,1.5112160409710425,0
smt_37980,6.054050866162648,216.3,2.798913946445977,1.6308793984197336,0
smt_6407,6.0530864540813765,216.3,2.7984680786321667,1.5106367013746012,0
smt_22794,6.052455270301203,216.3,2.7981762692099874,1.5103487451257627,0
smt_6477,6.051758645790477,216.3,2.7978542051735906,1.5100312542104073,0
smt_6641,6.0508535803184715,216.3,2.797435774534661,1.5096192688658236,0
smt_6157,6.050218048842466,216.3,2.797141955082046,1.509330316781394,0
smt_6694,6.049500243040244,216.3,2.796810098492947,1.5090042977338456,0
rbt_1607319,2.5253314333408405,90.3,2.7966018087938433,1.9866111032180314,0
rbt_622709,2.5224099805963593,90.3,2.7933665344367213,1.3133552052562538,0
rbt_1607328,2.5197770824805654,90.3,2.7904508111634168,1.312205018881804,0
rbt_607366,2.5187587802517535,90.3,2.7893231232023847,1.3108463207341536,0
smt_6074,7.935186463932417,286.65,2.7682492460953836,1.6279588234364626,0
smt_6082,7.934699183481293,286.65,2.768079254659443,1.6278641449779192,0
smt_6649,7.934218903148761,286.65,2.767911705267316,1.6277710060964738,0
smt_29408,7.933749267553142,286.65,2.7677478693714086,1.6276802062932434,0
smt_6422,7.93327858257957,286.65,2.7675836673921403,1.6275894125947639,0
smt_22683,7.932805427578351,286.65,2.767418603725223,1.6274983146425122,0
smt_22793,7.9123079515799,286.65,2.7602679056619226,1.6132432258686775,0
smt_22790,7.911816529202094,286.65,2.7600964692838286,1.6131443198653281,0
smt_6370,7.911342085900606,286.65,2.7599309561837106,1.6130490901554753,0
smt_29449,7.9112579626019714,286.65,2.759901609140754,1.6137141210715342,0
smt_29409,7.9108651239268575,286.65,2.7597645644259057,1.6129536266147844,0
smt_6401,7.910783844845678,286.65,2.759736209609516,1.6136207318623315,0
smt_5650,7.910365373486498,286.65,2.7595902227407985,1.6128537104064808,0
smt_21348,7.91030698817198,286.65,2.759569854586423,1.6135294855022178,0
smt_6094,7.909871946696151,286.65,2.759418087108373,1.6127548486640437,0
smt_29477,7.909493017726185,286.65,2.759285894898373,1.6126797406644753,0
smt_29450,7.909029882675677,286.65,2.7591243267663277,1.6125879066972626,0
smt_6231,7.90852064449599,286.65,2.7589466752122767,1.6124868033604443,0
smt_6340,7.908043372442054,286.65,2.758780175280675,1.6123924473338285,0
sbt_21953,4.492544877296646,163.8,2.7427013902909922,1.2909127604147834,0
sbt_21849,4.492544804993974,163.8,2.7427013461501675,1.290912739418006,0
sbt_21968,4.492544717378567,163.8,2.7427012926609073,1.2909127140225698,0
smt_6581,7.838227056572057,286.65,2.7344242304455113,1.584321350608687,0
smt_6701,7.837747126485402,286.65,2.7342568032392824,1.584228809210426,0
smt_21959,7.837220025692137,286.65,2.734072920178663,1.5841266141440649,0
smt_19219,7.826498263710136,286.65,2.730332553186861,1.5728787526113486,0
smt_5952,7.825992741209663,286.65,2.73015619787534,1.5727738773510829,0
smt_29478,7.825465504937794,286.65,2.7299722675519953,1.5726646558693418,0
smt_22841,7.825000902982487,286.65,2.729810187679221,1.572568698268537,0
smt_6660,7.824498985879079,286.65,2.729635090137478,1.5724651839473784,0
smt_22845,7.781298200705099,286.65,2.7145641725815803,1.5474714922620256,0
smt_18913,7.780712968053989,286.65,2.7143600097868448,1.5473495381694204,0
smt_5786,7.780145691938052,286.65,2.714162111263929,1.5472316105311064,0
smt_29479,7.779657276598695,286.65,2.7139917239137263,1.5471303408370796,0
smt_19224,7.779155280255522,286.65,2.713816598728597,1.547026485385499,0
rbt_1633892,2.434840602419335,90.3,2.696390478869696,1.267405812958982,0
sbt_21137,4.413797410371552,163.8,2.6946260136578455,1.2674172280493063,0
rbt_1134165,2.427913321891806,90.3,2.688719071862465,1.265327899371312,0
rbt_1131858,2.426619046101092,90.3,2.6872857653389723,1.2642732769331926,0
rbt_1607353,2.4061130489305835,90.3,2.664577019856682,1.2523769402224891,0
sbt_34390,4.348288767585603,163.8,2.654632947243958,2.011017090580493,0
smt_37973,5.637915020604622,216.3,2.606525668333158,1.5461419574825592,0
smt_37991,5.637727112159013,216.3,2.606438794340736,1.5461123148104188,0
smt_37974,5.637462233688678,216.3,2.606316335501007,1.5460722847063828,0
smt_37990,5.637010608312134,216.3,2.6061075396727387,1.5459972498383057,0
smt_37975,5.6365928686721585,216.3,2.6059144099270264,1.5459295408850915,0
smt_37976,5.6361407485283985,216.3,2.6057053853575582,1.5458557121686471,0
smt_37977,5.635694814693623,216.3,2.605499220847722,1.5457829163481647,0
smt_37978,5.6352703742612675,216.3,2.6053029931859766,1.54571546037974,0
smt_37970,5.5882514078057035,216.3,2.583565144616599,1.5347006341922338,0
smt_37971,5.587656830556555,216.3,2.5832902591569833,1.534596356189338,0
smt_37972,5.58734941995907,216.3,2.583148136828049,1.5345486004917903,0
smt_37989,5.586910579028037,216.3,2.5829452515155045,1.5344910951145039,0
sbt_20633,4.163838344608423,163.8,2.542025851409293,1.6777451506564134,0
smt_37964,5.471403942437753,216.3,2.529544125029012,1.5077015266797853,0
smt_37965,5.4698506844670245,216.3,2.5288260214826743,1.507444995378518,0
smt_37994,5.46964782447097,216.3,2.528732235076731,1.5074074926711851,0
smt_37995,5.469643023011136,216.3,2.5287300152617362,1.5074067626882206,0
smt_37996,5.469637242579544,216.3,2.5287273428476853,1.5074134702163953,0
smt_37966,5.469285752930689,216.3,2.528564841854225,1.507358138505154,0
smt_37967,5.46885597319945,216.3,2.528366145723278,1.5072889280430248,0
smt_37968,5.468415201169817,216.3,2.5281623676235863,1.5072178780475918,0
smt_37969,5.467982507906194,216.3,2.5279623245058684,1.5071462876788813,0
sbt_4619,5.443882456456475,216.3,2.516820368218435,1.183079546327181,0
rbt_606110,1.5131211397344853,61.95,2.442487715471324,1.1475886014984924,0
rbt_1607284,2.197129249319647,90.3,2.433144240664061,1.143921087473519,0
rbt_1607302,1.4894104127759744,61.95,2.404213741365576,1.1295558571256057,0
rbt_607382,2.148003959955744,90.3,2.378741926861289,1.1184211543085139,0
rbt_1607273,1.822418008260624,76.65,2.3775838333471935,1.1172472767199153,0
sbt_26614,3.8514700372231228,162.75,2.366494646527264,1.7924448360056298,0
sbt_26512,3.8514684570801156,162.75,2.366493675625263,1.7924438519395112,0
sbt_16246,3.8514678806952736,162.75,2.3664933214717503,1.792443493635484,0
sbt_5828,3.851465149664899,163.8,2.3513218251922456,1.7809517882683652,0
sbt_3790,3.8242452777682425,163.8,2.3347040767815885,1.0968345821177468,0
rbt_1137150,1.4375566016979648,61.95,2.3205110600451406,1.0909452592659452,0
rbt_3405843,2.0894010742473323,90.3,2.313843936043557,1.088127390103882,0
rbt_1607288,1.756382792021786,76.65,2.291432213987979,1.0770449188766746,0
rbt_605817,1.747225686101621,76.65,2.279485565690308,1.0714981667899848,0
smt_13591,3.7105266303051403,163.8,2.265278773080061,1.1230708621540924,0
sbt_30492,2.820200768174195,124.95,2.2570634399153224,1.0607524710835239,0
rbt_607387,2.0278306794122978,90.3,2.2456596671232534,1.0553755965071394,0
sbt_21147,2.8731772387592898,128.1,2.2429174385318422,1.0539979578389571,0
sbt_17923,2.87317177446778,128.1,2.2429131728866354,1.053993649912943,0
rbt_626695,2.0187510916662204,90.3,2.23560475267577,1.6935857836403818,0
rbt_623432,2.018721667489889,90.3,2.2355721677628893,1.0512143726636383,0
sbt_3473,3.6373678308507635,163.8,2.2206152813496725,1.04388333550062,0
sbt_26790,4.79065616112893,216.3,2.2148202316823533,1.0414730318118077,0
smt_18691,6.3376133879079966,286.65,2.210923909962671,1.1613506687860728,0
smt_18692,6.336906338971286,286.65,2.210677250644091,1.1611619169730014,0
smt_22142,6.3362760769445305,286.65,2.210457379014314,1.1609940597830344,0
smt_29410,6.335704104415361,286.65,2.210257842112458,1.160842050619377,0
smt_4821,6.335158424777544,286.65,2.2100674776827294,1.1606973171107449,0
smt_18693,6.334493900284759,286.65,2.2098356533349937,1.1605214424914332,0
smt_5832,6.3338815377205036,286.65,2.209622026066808,1.1603597443379312,0
smt_18694,6.333240326045392,286.65,2.20939833457017,1.1601908110486265,0
smt_5643,6.332675217445972,286.65,2.2092011922016304,1.1600422532868093,0
smt_29483,6.332113578334825,286.65,2.2090052601900663,1.1598949104438296,0
smt_6014,6.331557323767126,286.65,2.208811206616824,1.1597492785900658,0
smt_18695,6.33091564342806,286.65,2.208587351623255,1.1595816514187594,0
smt_29482,6.330345131607368,286.65,2.2083883243004947,1.1594329492533706,0
smt_6195,6.3297471875898985,286.65,2.208179727050375,1.1592774348900703,0
smt_6105,6.329147113524631,286.65,2.2079703867171228,1.1591217151588902,0
smt_19334,6.284508115677343,286.65,2.1923977378954627,1.1376354535551425,0
smt_19331,6.283886891531156,286.65,2.1921810191980313,1.1374421191971067,0
smt_22269,6.283276767184806,286.65,2.1919681727489295,1.1372525300821126,0
sbt_34896,4.684030479327854,216.3,2.1655249557687717,1.0179921599047248,0
sbt_34381,3.4982558746431263,163.8,2.135687347156976,1.0040193307282623,0
smt_29480,6.081201194514079,286.65,2.1214725953302214,1.1653692573049574,0
smt_19271,6.080011615822341,286.65,2.1210576018916245,1.165096805809121,0
smt_5537,6.079539266193323,286.65,2.120892819184833,1.1649890274766814,0
smt_19274,6.05682306803069,286.65,2.112968103272524,1.151275208774578,0
smt_4942,6.056268793939363,286.65,2.1127747406033013,1.1511471600901169,0
smt_18740,6.055727909928102,286.65,2.1125860491638244,1.1510225120893889,0
smt_5191,6.055189465388355,286.65,2.1123982087522606,1.1508987284965662,0
smt_5198,6.054656049689281,286.65,2.112212122689441,1.1507763990808757,0
smt_5549,6.054068095488819,286.65,2.112007010461824,1.1506419068558007,0
smt_19273,6.053466678873619,286.65,2.11179720176997,1.1505047100039694,0
smt_5414,6.052961757658534,286.65,2.1116210562213618,1.1503898195347226,0
smt_5522,6.052400280869874,286.65,2.111425180837214,1.1502623757601256,0
smt_40861,6.023718559299491,286.65,2.101419347392113,1.1328212581919135,0
smt_40860,6.023356774213688,286.65,2.1012931359545397,1.1327373907842644,0
smt_40859,6.02297642730415,286.65,2.1011604490856968,1.132649369336569,0
smt_40858,6.022590771927009,286.65,2.101025910318161,1.1325602754257524,0
smt_40857,6.022117406474793,286.65,2.100860773233837,1.132451134023354,0
smt_40856,6.021640257231955,286.65,2.100694316145807,1.132341360722475,0
smt_40855,6.021174542693223,286.65,2.10053184813997,1.1322344515684089,0
smt_40854,6.0207340876543425,286.65,2.100378192099893,1.1321335535569295,0
smt_40853,6.02025850884977,286.65,2.1002122828710172,1.1320248420717518,0
smt_40852,6.019780082314173,286.65,2.100045380189839,1.1319157238388409,0
smt_22899,6.018266736942172,286.65,2.0995174383192645,1.1239917407754032,0
smt_5757,6.0179684897311745,286.65,2.0994133925453253,1.1241875955005547,0
smt_5956,6.017699185015657,286.65,2.099319443577763,1.1238446978029473,0
smt_6028,6.0173773846467835,286.65,2.0992071811082447,1.1240352445077106,0
smt_22898,6.016776900139635,286.65,2.0989976975892675,1.1238808291656233,0
smt_16985,6.016288479462568,286.65,2.0988273083769644,1.123755512422856,0
smt_6106,6.01572597466945,286.65,2.09863107436576,1.1236114938458346,0
smt_6021,6.015168737333901,286.65,2.0984366779465904,1.1234691343193253,0
smt_6212,6.014626878544966,286.65,2.0982476464486193,1.1233310006643262,0
smt_6044,6.01406383506517,286.65,2.098051224512531,1.1231877775952688,0
smt_6029,6.013514833193848,286.65,2.097859701096755,1.1230484324605488,0
smt_19276,6.0129662122836605,286.65,2.0976683105821246,1.1229094867995828,0
smt_22896,6.0123397704530515,286.65,2.0974497716563936,1.1227512029895235,0
smt_6693,6.011916945533385,286.65,2.0973022660154843,1.1226445926024258,0
smt_41231,6.011899804427466,286.65,2.097296286212268,1.122640274293264,0
smt_41232,6.011302682730496,286.65,2.0970879758348144,1.1224900345744244,0
rbt_605808,1.8934665966616193,90.3,2.0968622332908295,0.9852274304953267,0
smt_40865,6.003060399611372,286.65,2.094212593619875,1.120453512820456,0
smt_40864,6.002596177119457,286.65,2.0940506461257486,1.1203409113165483,0
smt_40863,6.0021252767333575,286.65,2.093886368998206,1.1202269235986104,0
smt_40862,6.001654558715866,286.65,2.093722155491319,1.1201132157065052,0
rbt_1607326,1.8896435198078725,90.3,2.092628482622229,0.9839310950109704,0
smt_40375,3.414661792815019,163.8,2.0846531091666782,1.0378167306469754,0
smt_40374,3.4141111142119454,163.8,2.084316919543312,1.0374881421743176,0
smt_40358,3.4135632512907574,163.8,2.083982448895456,1.0371619122514535,0
smt_40357,3.4129863884219342,163.8,2.0836302737618646,1.036819149415702,0
smt_40356,3.4125005030176565,163.8,2.0833336404259195,1.036531032064251,0
smt_40355,3.4119455665579683,163.8,2.0829948513784906,1.036202630525556,0
...